<additional>
  <laneAreaDetector file="ild.out" freq="1" id="np1_nt1_0" lane="np1_nt1_0" pos="-50" endPos="-1"/>
  <laneAreaDetector file="ild.out" freq="1" id="np1_nt1_1" lane="np1_nt1_1" pos="-50" endPos="-1"/>
  <laneAreaDetector file="ild.out" freq="1" id="np1_nt1_2" lane="np1_nt1_2" pos="-50" endPos="-1"/>
  <laneAreaDetector file="ild.out" freq="1" id="np2_nt2_0" lane="np2_nt2_0" pos="-50" endPos="-1"/>
  <laneAreaDetector file="ild.out" freq="1" id="np2_nt2_1" lane="np2_nt2_1" pos="-50" endPos="-1"/>
  <laneAreaDetector file="ild.out" freq="1" id="np2_nt2_2" lane="np2_nt2_2" pos="-50" endPos="-1"/>
  <laneAreaDetector file="ild.out" freq="1" id="np3_nt3_0" lane="np3_nt3_0" pos="-50" endPos="-1"/>
  <laneAreaDetector file="ild.out" freq="1" id="np3_nt3_1" lane="np3_nt3_1" pos="-50" endPos="-1"/>
  <laneAreaDetector file="ild.out" freq="1" id="np3_nt3_2" lane="np3_nt3_2" pos="-50" endPos="-1"/>
  <laneAreaDetector file="ild.out" freq="1" id="np4_nt3_0" lane="np4_nt3_0" pos="-50" endPos="-1"/>
  <laneAreaDetector file="ild.out" freq="1" id="np4_nt3_1" lane="np4_nt3_1" pos="-50" endPos="-1"/>
  <laneAreaDetector file="ild.out" freq="1" id="np4_nt3_2" lane="np4_nt3_2" pos="-50" endPos="-1"/>
  <laneAreaDetector file="ild.out" freq="1" id="np5_nt6_0" lane="np5_nt6_0" pos="-50" endPos="-1"/>
  <laneAreaDetector file="ild.out" freq="1" id="np5_nt6_1" lane="np5_nt6_1" pos="-50" endPos="-1"/>
  <laneAreaDetector file="ild.out" freq="1" id="np5_nt6_2" lane="np5_nt6_2" pos="-50" endPos="-1"/>
  <laneAreaDetector file="ild.out" freq="1" id="np6_nt9_0" lane="np6_nt9_0" pos="-50" endPos="-1"/>
  <laneAreaDetector file="ild.out" freq="1" id="np6_nt9_1" lane="np6_nt9_1" pos="-50" endPos="-1"/>
  <laneAreaDetector file="ild.out" freq="1" id="np6_nt9_2" lane="np6_nt9_2" pos="-50" endPos="-1"/>
  <laneAreaDetector file="ild.out" freq="1" id="np7_nt9_0" lane="np7_nt9_0" pos="-50" endPos="-1"/>
  <laneAreaDetector file="ild.out" freq="1" id="np7_nt9_1" lane="np7_nt9_1" pos="-50" endPos="-1"/>
  <laneAreaDetector file="ild.out" freq="1" id="np7_nt9_2" lane="np7_nt9_2" pos="-50" endPos="-1"/>
  <laneAreaDetector file="ild.out" freq="1" id="np8_nt8_0" lane="np8_nt8_0" pos="-50" endPos="-1"/>
  <laneAreaDetector file="ild.out" freq="1" id="np8_nt8_1" lane="np8_nt8_1" pos="-50" endPos="-1"/>
  <laneAreaDetector file="ild.out" freq="1" id="np8_nt8_2" lane="np8_nt8_2" pos="-50" endPos="-1"/>
  <laneAreaDetector file="ild.out" freq="1" id="np9_nt7_0" lane="np9_nt7_0" pos="-50" endPos="-1"/>
  <laneAreaDetector file="ild.out" freq="1" id="np9_nt7_1" lane="np9_nt7_1" pos="-50" endPos="-1"/>
  <laneAreaDetector file="ild.out" freq="1" id="np9_nt7_2" lane="np9_nt7_2" pos="-50" endPos="-1"/>
  <laneAreaDetector file="ild.out" freq="1" id="np10_nt7_0" lane="np10_nt7_0" pos="-50" endPos="-1"/>
  <laneAreaDetector file="ild.out" freq="1" id="np10_nt7_1" lane="np10_nt7_1" pos="-50" endPos="-1"/>
  <laneAreaDetector file="ild.out" freq="1" id="np10_nt7_2" lane="np10_nt7_2" pos="-50" endPos="-1"/>
  <laneAreaDetector file="ild.out" freq="1" id="np11_nt4_0" lane="np11_nt4_0" pos="-50" endPos="-1"/>
  <laneAreaDetector file="ild.out" freq="1" id="np11_nt4_1" lane="np11_nt4_1" pos="-50" endPos="-1"/>
  <laneAreaDetector file="ild.out" freq="1" id="np11_nt4_2" lane="np11_nt4_2" pos="-50" endPos="-1"/>
  <laneAreaDetector file="ild.out" freq="1" id="np12_nt1_0" lane="np12_nt1_0" pos="-50" endPos="-1"/>
  <laneAreaDetector file="ild.out" freq="1" id="np12_nt1_1" lane="np12_nt1_1" pos="-50" endPos="-1"/>
  <laneAreaDetector file="ild.out" freq="1" id="np12_nt1_2" lane="np12_nt1_2" pos="-50" endPos="-1"/>
  <laneAreaDetector file="ild.out" freq="1" id="nt1_nt2_0" lane="nt1_nt2_0" pos="-50" endPos="-1"/>
  <laneAreaDetector file="ild.out" freq="1" id="nt2_nt1_0" lane="nt2_nt1_0" pos="-50" endPos="-1"/>
  <laneAreaDetector file="ild.out" freq="1" id="nt1_nt2_1" lane="nt1_nt2_1" pos="-50" endPos="-1"/>
  <laneAreaDetector file="ild.out" freq="1" id="nt2_nt1_1" lane="nt2_nt1_1" pos="-50" endPos="-1"/>
  <laneAreaDetector file="ild.out" freq="1" id="nt1_nt2_2" lane="nt1_nt2_2" pos="-50" endPos="-1"/>
  <laneAreaDetector file="ild.out" freq="1" id="nt2_nt1_2" lane="nt2_nt1_2" pos="-50" endPos="-1"/>
  <laneAreaDetector file="ild.out" freq="1" id="nt2_nt3_0" lane="nt2_nt3_0" pos="-50" endPos="-1"/>
  <laneAreaDetector file="ild.out" freq="1" id="nt3_nt2_0" lane="nt3_nt2_0" pos="-50" endPos="-1"/>
  <laneAreaDetector file="ild.out" freq="1" id="nt2_nt3_1" lane="nt2_nt3_1" pos="-50" endPos="-1"/>
  <laneAreaDetector file="ild.out" freq="1" id="nt3_nt2_1" lane="nt3_nt2_1" pos="-50" endPos="-1"/>
  <laneAreaDetector file="ild.out" freq="1" id="nt2_nt3_2" lane="nt2_nt3_2" pos="-50" endPos="-1"/>
  <laneAreaDetector file="ild.out" freq="1" id="nt3_nt2_2" lane="nt3_nt2_2" pos="-50" endPos="-1"/>
  <laneAreaDetector file="ild.out" freq="1" id="nt4_nt5_0" lane="nt4_nt5_0" pos="-50" endPos="-1"/>
  <laneAreaDetector file="ild.out" freq="1" id="nt5_nt4_0" lane="nt5_nt4_0" pos="-50" endPos="-1"/>
  <laneAreaDetector file="ild.out" freq="1" id="nt4_nt5_1" lane="nt4_nt5_1" pos="-50" endPos="-1"/>
  <laneAreaDetector file="ild.out" freq="1" id="nt5_nt4_1" lane="nt5_nt4_1" pos="-50" endPos="-1"/>
  <laneAreaDetector file="ild.out" freq="1" id="nt4_nt5_2" lane="nt4_nt5_2" pos="-50" endPos="-1"/>
  <laneAreaDetector file="ild.out" freq="1" id="nt5_nt4_2" lane="nt5_nt4_2" pos="-50" endPos="-1"/>
  <laneAreaDetector file="ild.out" freq="1" id="nt5_nt6_0" lane="nt5_nt6_0" pos="-50" endPos="-1"/>
  <laneAreaDetector file="ild.out" freq="1" id="nt6_nt5_0" lane="nt6_nt5_0" pos="-50" endPos="-1"/>
  <laneAreaDetector file="ild.out" freq="1" id="nt5_nt6_1" lane="nt5_nt6_1" pos="-50" endPos="-1"/>
  <laneAreaDetector file="ild.out" freq="1" id="nt6_nt5_1" lane="nt6_nt5_1" pos="-50" endPos="-1"/>
  <laneAreaDetector file="ild.out" freq="1" id="nt5_nt6_2" lane="nt5_nt6_2" pos="-50" endPos="-1"/>
  <laneAreaDetector file="ild.out" freq="1" id="nt6_nt5_2" lane="nt6_nt5_2" pos="-50" endPos="-1"/>
  <laneAreaDetector file="ild.out" freq="1" id="nt7_nt8_0" lane="nt7_nt8_0" pos="-50" endPos="-1"/>
  <laneAreaDetector file="ild.out" freq="1" id="nt8_nt7_0" lane="nt8_nt7_0" pos="-50" endPos="-1"/>
  <laneAreaDetector file="ild.out" freq="1" id="nt7_nt8_1" lane="nt7_nt8_1" pos="-50" endPos="-1"/>
  <laneAreaDetector file="ild.out" freq="1" id="nt8_nt7_1" lane="nt8_nt7_1" pos="-50" endPos="-1"/>
  <laneAreaDetector file="ild.out" freq="1" id="nt7_nt8_2" lane="nt7_nt8_2" pos="-50" endPos="-1"/>
  <laneAreaDetector file="ild.out" freq="1" id="nt8_nt7_2" lane="nt8_nt7_2" pos="-50" endPos="-1"/>
  <laneAreaDetector file="ild.out" freq="1" id="nt8_nt9_0" lane="nt8_nt9_0" pos="-50" endPos="-1"/>
  <laneAreaDetector file="ild.out" freq="1" id="nt9_nt8_0" lane="nt9_nt8_0" pos="-50" endPos="-1"/>
  <laneAreaDetector file="ild.out" freq="1" id="nt8_nt9_1" lane="nt8_nt9_1" pos="-50" endPos="-1"/>
  <laneAreaDetector file="ild.out" freq="1" id="nt9_nt8_1" lane="nt9_nt8_1" pos="-50" endPos="-1"/>
  <laneAreaDetector file="ild.out" freq="1" id="nt8_nt9_2" lane="nt8_nt9_2" pos="-50" endPos="-1"/>
  <laneAreaDetector file="ild.out" freq="1" id="nt9_nt8_2" lane="nt9_nt8_2" pos="-50" endPos="-1"/>
  <laneAreaDetector file="ild.out" freq="1" id="nt1_nt4_0" lane="nt1_nt4_0" pos="-50" endPos="-1"/>
  <laneAreaDetector file="ild.out" freq="1" id="nt4_nt1_0" lane="nt4_nt1_0" pos="-50" endPos="-1"/>
  <laneAreaDetector file="ild.out" freq="1" id="nt1_nt4_1" lane="nt1_nt4_1" pos="-50" endPos="-1"/>
  <laneAreaDetector file="ild.out" freq="1" id="nt4_nt1_1" lane="nt4_nt1_1" pos="-50" endPos="-1"/>
  <laneAreaDetector file="ild.out" freq="1" id="nt1_nt4_2" lane="nt1_nt4_2" pos="-50" endPos="-1"/>
  <laneAreaDetector file="ild.out" freq="1" id="nt4_nt1_2" lane="nt4_nt1_2" pos="-50" endPos="-1"/>
  <laneAreaDetector file="ild.out" freq="1" id="nt4_nt7_0" lane="nt4_nt7_0" pos="-50" endPos="-1"/>
  <laneAreaDetector file="ild.out" freq="1" id="nt7_nt4_0" lane="nt7_nt4_0" pos="-50" endPos="-1"/>
  <laneAreaDetector file="ild.out" freq="1" id="nt4_nt7_1" lane="nt4_nt7_1" pos="-50" endPos="-1"/>
  <laneAreaDetector file="ild.out" freq="1" id="nt7_nt4_1" lane="nt7_nt4_1" pos="-50" endPos="-1"/>
  <laneAreaDetector file="ild.out" freq="1" id="nt4_nt7_2" lane="nt4_nt7_2" pos="-50" endPos="-1"/>
  <laneAreaDetector file="ild.out" freq="1" id="nt7_nt4_2" lane="nt7_nt4_2" pos="-50" endPos="-1"/>
  <laneAreaDetector file="ild.out" freq="1" id="nt2_nt5_0" lane="nt2_nt5_0" pos="-50" endPos="-1"/>
  <laneAreaDetector file="ild.out" freq="1" id="nt5_nt2_0" lane="nt5_nt2_0" pos="-50" endPos="-1"/>
  <laneAreaDetector file="ild.out" freq="1" id="nt2_nt5_1" lane="nt2_nt5_1" pos="-50" endPos="-1"/>
  <laneAreaDetector file="ild.out" freq="1" id="nt5_nt2_1" lane="nt5_nt2_1" pos="-50" endPos="-1"/>
  <laneAreaDetector file="ild.out" freq="1" id="nt2_nt5_2" lane="nt2_nt5_2" pos="-50" endPos="-1"/>
  <laneAreaDetector file="ild.out" freq="1" id="nt5_nt2_2" lane="nt5_nt2_2" pos="-50" endPos="-1"/>
  <laneAreaDetector file="ild.out" freq="1" id="nt5_nt8_0" lane="nt5_nt8_0" pos="-50" endPos="-1"/>
  <laneAreaDetector file="ild.out" freq="1" id="nt8_nt5_0" lane="nt8_nt5_0" pos="-50" endPos="-1"/>
  <laneAreaDetector file="ild.out" freq="1" id="nt5_nt8_1" lane="nt5_nt8_1" pos="-50" endPos="-1"/>
  <laneAreaDetector file="ild.out" freq="1" id="nt8_nt5_1" lane="nt8_nt5_1" pos="-50" endPos="-1"/>
  <laneAreaDetector file="ild.out" freq="1" id="nt5_nt8_2" lane="nt5_nt8_2" pos="-50" endPos="-1"/>
  <laneAreaDetector file="ild.out" freq="1" id="nt8_nt5_2" lane="nt8_nt5_2" pos="-50" endPos="-1"/>
  <laneAreaDetector file="ild.out" freq="1" id="nt3_nt6_0" lane="nt3_nt6_0" pos="-50" endPos="-1"/>
  <laneAreaDetector file="ild.out" freq="1" id="nt6_nt3_0" lane="nt6_nt3_0" pos="-50" endPos="-1"/>
  <laneAreaDetector file="ild.out" freq="1" id="nt3_nt6_1" lane="nt3_nt6_1" pos="-50" endPos="-1"/>
  <laneAreaDetector file="ild.out" freq="1" id="nt6_nt3_1" lane="nt6_nt3_1" pos="-50" endPos="-1"/>
  <laneAreaDetector file="ild.out" freq="1" id="nt3_nt6_2" lane="nt3_nt6_2" pos="-50" endPos="-1"/>
  <laneAreaDetector file="ild.out" freq="1" id="nt6_nt3_2" lane="nt6_nt3_2" pos="-50" endPos="-1"/>
  <laneAreaDetector file="ild.out" freq="1" id="nt6_nt9_0" lane="nt6_nt9_0" pos="-50" endPos="-1"/>
  <laneAreaDetector file="ild.out" freq="1" id="nt9_nt6_0" lane="nt9_nt6_0" pos="-50" endPos="-1"/>
  <laneAreaDetector file="ild.out" freq="1" id="nt6_nt9_1" lane="nt6_nt9_1" pos="-50" endPos="-1"/>
  <laneAreaDetector file="ild.out" freq="1" id="nt9_nt6_1" lane="nt9_nt6_1" pos="-50" endPos="-1"/>
  <laneAreaDetector file="ild.out" freq="1" id="nt6_nt9_2" lane="nt6_nt9_2" pos="-50" endPos="-1"/>
  <laneAreaDetector file="ild.out" freq="1" id="nt9_nt6_2" lane="nt9_nt6_2" pos="-50" endPos="-1"/>
</additional>
