<?xml version="1.0" encoding="UTF-8"?>

<!-- generated on 2021-05-24 23:51:01 by Eclipse SUMO netedit Version 1.9.2
<configuration xmlns:xsi="http://www.w3.org/2001/XMLSchema-instance" xsi:noNamespaceSchemaLocation="http://sumo.dlr.de/xsd/netconvertConfiguration.xsd">

    <input>
        <sumo-net-file value="/home/jackson/Desktop/FinalProject/test.net.xml"/>
    </input>

    <output>
        <output-file value="/home/jackson/Desktop/FinalProject/test.net.xml"/>
    </output>

    <processing>
        <geometry.min-radius.fix.railways value="false"/>
        <geometry.max-grade.fix value="false"/>
        <offset.disable-normalization value="true"/>
        <lefthand value="false"/>
    </processing>

    <junctions>
        <no-turnarounds value="true"/>
        <junctions.corner-detail value="5"/>
        <junctions.limit-turn-speed value="5.5"/>
        <rectangular-lane-cut value="false"/>
    </junctions>

    <pedestrian>
        <walkingareas value="false"/>
    </pedestrian>

    <report>
        <aggregate-warnings value="5"/>
    </report>

</configuration>
-->

<net version="1.9" junctionCornerDetail="5" limitTurnSpeed="5.50" xmlns:xsi="http://www.w3.org/2001/XMLSchema-instance" xsi:noNamespaceSchemaLocation="http://sumo.dlr.de/xsd/net_file.xsd">

    <location netOffset="0.00,0.00" convBoundary="-100.00,-100.00,500.00,500.00" origBoundary="-10000000000.00,-10000000000.00,10000000000.00,10000000000.00" projParameter="!"/>

    <edge id=":nt1_0" function="internal">
        <lane id=":nt1_0_0" index="0" speed="6.51" length="9.03" shape="-8.00,13.60 -8.35,11.15 -9.40,9.40 -11.15,8.35 -13.60,8.00"/>
    </edge>
    <edge id=":nt1_1" function="internal">
        <lane id=":nt1_1_0" index="0" speed="20.00" length="27.20" shape="-4.80,13.60 -4.80,-13.60"/>
    </edge>
    <edge id=":nt1_2" function="internal">
        <lane id=":nt1_2_0" index="0" speed="10.36" length="24.51" shape="-1.60,13.60 -0.65,6.95 2.20,2.20 6.95,-0.65 13.60,-1.60"/>
    </edge>
    <edge id=":nt1_3" function="internal">
        <lane id=":nt1_3_0" index="0" speed="6.51" length="9.03" shape="13.60,8.00 11.15,8.35 9.40,9.40 8.35,11.15 8.00,13.60"/>
    </edge>
    <edge id=":nt1_4" function="internal">
        <lane id=":nt1_4_0" index="0" speed="20.00" length="27.20" shape="13.60,4.80 -13.60,4.80"/>
    </edge>
    <edge id=":nt1_5" function="internal">
        <lane id=":nt1_5_0" index="0" speed="10.36" length="24.51" shape="13.60,1.60 6.95,0.65 2.20,-2.20 -0.65,-6.95 -1.60,-13.60"/>
    </edge>
    <edge id=":nt1_6" function="internal">
        <lane id=":nt1_6_0" index="0" speed="6.51" length="9.03" shape="8.00,-13.60 8.35,-11.15 9.40,-9.40 11.15,-8.35 13.60,-8.00"/>
    </edge>
    <edge id=":nt1_7" function="internal">
        <lane id=":nt1_7_0" index="0" speed="20.00" length="27.20" shape="4.80,-13.60 4.80,13.60"/>
    </edge>
    <edge id=":nt1_8" function="internal">
        <lane id=":nt1_8_0" index="0" speed="10.36" length="24.51" shape="1.60,-13.60 0.65,-6.95 -2.20,-2.20 -6.95,0.65 -13.60,1.60"/>
    </edge>
    <edge id=":nt1_9" function="internal">
        <lane id=":nt1_9_0" index="0" speed="6.51" length="9.03" shape="-13.60,-8.00 -11.15,-8.35 -9.40,-9.40 -8.35,-11.15 -8.00,-13.60"/>
    </edge>
    <edge id=":nt1_10" function="internal">
        <lane id=":nt1_10_0" index="0" speed="20.00" length="27.20" shape="-13.60,-4.80 13.60,-4.80"/>
    </edge>
    <edge id=":nt1_11" function="internal">
        <lane id=":nt1_11_0" index="0" speed="10.36" length="24.51" shape="-13.60,-1.60 -6.95,-0.65 -2.20,2.20 0.65,6.95 1.60,13.60"/>
    </edge>
    <edge id=":nt2_0" function="internal">
        <lane id=":nt2_0_0" index="0" speed="6.51" length="9.03" shape="192.00,13.60 191.65,11.15 190.60,9.40 188.85,8.35 186.40,8.00"/>
    </edge>
    <edge id=":nt2_1" function="internal">
        <lane id=":nt2_1_0" index="0" speed="20.00" length="27.20" shape="195.20,13.60 195.20,-13.60"/>
    </edge>
    <edge id=":nt2_2" function="internal">
        <lane id=":nt2_2_0" index="0" speed="10.36" length="24.51" shape="198.40,13.60 199.35,6.95 202.20,2.20 206.95,-0.65 213.60,-1.60"/>
    </edge>
    <edge id=":nt2_3" function="internal">
        <lane id=":nt2_3_0" index="0" speed="6.51" length="9.03" shape="213.60,8.00 211.15,8.35 209.40,9.40 208.35,11.15 208.00,13.60"/>
    </edge>
    <edge id=":nt2_4" function="internal">
        <lane id=":nt2_4_0" index="0" speed="20.00" length="27.20" shape="213.60,4.80 186.40,4.80"/>
    </edge>
    <edge id=":nt2_5" function="internal">
        <lane id=":nt2_5_0" index="0" speed="10.36" length="24.51" shape="213.60,1.60 206.95,0.65 202.20,-2.20 199.35,-6.95 198.40,-13.60"/>
    </edge>
    <edge id=":nt2_6" function="internal">
        <lane id=":nt2_6_0" index="0" speed="6.51" length="9.03" shape="208.00,-13.60 208.35,-11.15 209.40,-9.40 211.15,-8.35 213.60,-8.00"/>
    </edge>
    <edge id=":nt2_7" function="internal">
        <lane id=":nt2_7_0" index="0" speed="20.00" length="27.20" shape="204.80,-13.60 204.80,13.60"/>
    </edge>
    <edge id=":nt2_8" function="internal">
        <lane id=":nt2_8_0" index="0" speed="10.36" length="24.51" shape="201.60,-13.60 200.65,-6.95 197.80,-2.20 193.05,0.65 186.40,1.60"/>
    </edge>
    <edge id=":nt2_9" function="internal">
        <lane id=":nt2_9_0" index="0" speed="6.51" length="9.03" shape="186.40,-8.00 188.85,-8.35 190.60,-9.40 191.65,-11.15 192.00,-13.60"/>
    </edge>
    <edge id=":nt2_10" function="internal">
        <lane id=":nt2_10_0" index="0" speed="20.00" length="27.20" shape="186.40,-4.80 213.60,-4.80"/>
    </edge>
    <edge id=":nt2_11" function="internal">
        <lane id=":nt2_11_0" index="0" speed="10.36" length="24.51" shape="186.40,-1.60 193.05,-0.65 197.80,2.20 200.65,6.95 201.60,13.60"/>
    </edge>
    <edge id=":nt3_0" function="internal">
        <lane id=":nt3_0_0" index="0" speed="6.51" length="9.03" shape="392.00,13.60 391.65,11.15 390.60,9.40 388.85,8.35 386.40,8.00"/>
    </edge>
    <edge id=":nt3_1" function="internal">
        <lane id=":nt3_1_0" index="0" speed="20.00" length="27.20" shape="395.20,13.60 395.20,-13.60"/>
    </edge>
    <edge id=":nt3_2" function="internal">
        <lane id=":nt3_2_0" index="0" speed="10.36" length="24.51" shape="398.40,13.60 399.35,6.95 402.20,2.20 406.95,-0.65 413.60,-1.60"/>
    </edge>
    <edge id=":nt3_3" function="internal">
        <lane id=":nt3_3_0" index="0" speed="6.51" length="9.03" shape="413.60,8.00 411.15,8.35 409.40,9.40 408.35,11.15 408.00,13.60"/>
    </edge>
    <edge id=":nt3_4" function="internal">
        <lane id=":nt3_4_0" index="0" speed="20.00" length="27.20" shape="413.60,4.80 386.40,4.80"/>
    </edge>
    <edge id=":nt3_5" function="internal">
        <lane id=":nt3_5_0" index="0" speed="10.36" length="24.51" shape="413.60,1.60 406.95,0.65 402.20,-2.20 399.35,-6.95 398.40,-13.60"/>
    </edge>
    <edge id=":nt3_6" function="internal">
        <lane id=":nt3_6_0" index="0" speed="6.51" length="9.03" shape="408.00,-13.60 408.35,-11.15 409.40,-9.40 411.15,-8.35 413.60,-8.00"/>
    </edge>
    <edge id=":nt3_7" function="internal">
        <lane id=":nt3_7_0" index="0" speed="20.00" length="27.20" shape="404.80,-13.60 404.80,13.60"/>
    </edge>
    <edge id=":nt3_8" function="internal">
        <lane id=":nt3_8_0" index="0" speed="10.36" length="24.51" shape="401.60,-13.60 400.65,-6.95 397.80,-2.20 393.05,0.65 386.40,1.60"/>
    </edge>
    <edge id=":nt3_9" function="internal">
        <lane id=":nt3_9_0" index="0" speed="6.51" length="9.03" shape="386.40,-8.00 388.85,-8.35 390.60,-9.40 391.65,-11.15 392.00,-13.60"/>
    </edge>
    <edge id=":nt3_10" function="internal">
        <lane id=":nt3_10_0" index="0" speed="20.00" length="27.20" shape="386.40,-4.80 413.60,-4.80"/>
    </edge>
    <edge id=":nt3_11" function="internal">
        <lane id=":nt3_11_0" index="0" speed="10.36" length="24.51" shape="386.40,-1.60 393.05,-0.65 397.80,2.20 400.65,6.95 401.60,13.60"/>
    </edge>
    <edge id=":nt4_0" function="internal">
        <lane id=":nt4_0_0" index="0" speed="6.51" length="9.03" shape="-8.00,213.60 -8.35,211.15 -9.40,209.40 -11.15,208.35 -13.60,208.00"/>
    </edge>
    <edge id=":nt4_1" function="internal">
        <lane id=":nt4_1_0" index="0" speed="20.00" length="27.20" shape="-4.80,213.60 -4.80,186.40"/>
    </edge>
    <edge id=":nt4_2" function="internal">
        <lane id=":nt4_2_0" index="0" speed="10.36" length="24.51" shape="-1.60,213.60 -0.65,206.95 2.20,202.20 6.95,199.35 13.60,198.40"/>
    </edge>
    <edge id=":nt4_3" function="internal">
        <lane id=":nt4_3_0" index="0" speed="6.51" length="9.03" shape="13.60,208.00 11.15,208.35 9.40,209.40 8.35,211.15 8.00,213.60"/>
    </edge>
    <edge id=":nt4_4" function="internal">
        <lane id=":nt4_4_0" index="0" speed="20.00" length="27.20" shape="13.60,204.80 -13.60,204.80"/>
    </edge>
    <edge id=":nt4_5" function="internal">
        <lane id=":nt4_5_0" index="0" speed="10.36" length="24.51" shape="13.60,201.60 6.95,200.65 2.20,197.80 -0.65,193.05 -1.60,186.40"/>
    </edge>
    <edge id=":nt4_6" function="internal">
        <lane id=":nt4_6_0" index="0" speed="6.51" length="9.03" shape="8.00,186.40 8.35,188.85 9.40,190.60 11.15,191.65 13.60,192.00"/>
    </edge>
    <edge id=":nt4_7" function="internal">
        <lane id=":nt4_7_0" index="0" speed="20.00" length="27.20" shape="4.80,186.40 4.80,213.60"/>
    </edge>
    <edge id=":nt4_8" function="internal">
        <lane id=":nt4_8_0" index="0" speed="10.36" length="24.51" shape="1.60,186.40 0.65,193.05 -2.20,197.80 -6.95,200.65 -13.60,201.60"/>
    </edge>
    <edge id=":nt4_9" function="internal">
        <lane id=":nt4_9_0" index="0" speed="6.51" length="9.03" shape="-13.60,192.00 -11.15,191.65 -9.40,190.60 -8.35,188.85 -8.00,186.40"/>
    </edge>
    <edge id=":nt4_10" function="internal">
        <lane id=":nt4_10_0" index="0" speed="20.00" length="27.20" shape="-13.60,195.20 13.60,195.20"/>
    </edge>
    <edge id=":nt4_11" function="internal">
        <lane id=":nt4_11_0" index="0" speed="10.36" length="24.51" shape="-13.60,198.40 -6.95,199.35 -2.20,202.20 0.65,206.95 1.60,213.60"/>
    </edge>
    <edge id=":nt5_0" function="internal">
        <lane id=":nt5_0_0" index="0" speed="6.51" length="9.03" shape="192.00,213.60 191.65,211.15 190.60,209.40 188.85,208.35 186.40,208.00"/>
    </edge>
    <edge id=":nt5_1" function="internal">
        <lane id=":nt5_1_0" index="0" speed="20.00" length="27.20" shape="195.20,213.60 195.20,186.40"/>
    </edge>
    <edge id=":nt5_2" function="internal">
        <lane id=":nt5_2_0" index="0" speed="10.36" length="24.51" shape="198.40,213.60 199.35,206.95 202.20,202.20 206.95,199.35 213.60,198.40"/>
    </edge>
    <edge id=":nt5_3" function="internal">
        <lane id=":nt5_3_0" index="0" speed="6.51" length="9.03" shape="213.60,208.00 211.15,208.35 209.40,209.40 208.35,211.15 208.00,213.60"/>
    </edge>
    <edge id=":nt5_4" function="internal">
        <lane id=":nt5_4_0" index="0" speed="20.00" length="27.20" shape="213.60,204.80 186.40,204.80"/>
    </edge>
    <edge id=":nt5_5" function="internal">
        <lane id=":nt5_5_0" index="0" speed="10.36" length="24.51" shape="213.60,201.60 206.95,200.65 202.20,197.80 199.35,193.05 198.40,186.40"/>
    </edge>
    <edge id=":nt5_6" function="internal">
        <lane id=":nt5_6_0" index="0" speed="6.51" length="9.03" shape="208.00,186.40 208.35,188.85 209.40,190.60 211.15,191.65 213.60,192.00"/>
    </edge>
    <edge id=":nt5_7" function="internal">
        <lane id=":nt5_7_0" index="0" speed="20.00" length="27.20" shape="204.80,186.40 204.80,213.60"/>
    </edge>
    <edge id=":nt5_8" function="internal">
        <lane id=":nt5_8_0" index="0" speed="10.36" length="24.51" shape="201.60,186.40 200.65,193.05 197.80,197.80 193.05,200.65 186.40,201.60"/>
    </edge>
    <edge id=":nt5_9" function="internal">
        <lane id=":nt5_9_0" index="0" speed="6.51" length="9.03" shape="186.40,192.00 188.85,191.65 190.60,190.60 191.65,188.85 192.00,186.40"/>
    </edge>
    <edge id=":nt5_10" function="internal">
        <lane id=":nt5_10_0" index="0" speed="20.00" length="27.20" shape="186.40,195.20 213.60,195.20"/>
    </edge>
    <edge id=":nt5_11" function="internal">
        <lane id=":nt5_11_0" index="0" speed="10.36" length="24.51" shape="186.40,198.40 193.05,199.35 197.80,202.20 200.65,206.95 201.60,213.60"/>
    </edge>
    <edge id=":nt6_0" function="internal">
        <lane id=":nt6_0_0" index="0" speed="6.51" length="9.03" shape="392.00,213.60 391.65,211.15 390.60,209.40 388.85,208.35 386.40,208.00"/>
    </edge>
    <edge id=":nt6_1" function="internal">
        <lane id=":nt6_1_0" index="0" speed="20.00" length="27.20" shape="395.20,213.60 395.20,186.40"/>
    </edge>
    <edge id=":nt6_2" function="internal">
        <lane id=":nt6_2_0" index="0" speed="10.36" length="24.51" shape="398.40,213.60 399.35,206.95 402.20,202.20 406.95,199.35 413.60,198.40"/>
    </edge>
    <edge id=":nt6_3" function="internal">
        <lane id=":nt6_3_0" index="0" speed="6.51" length="9.03" shape="413.60,208.00 411.15,208.35 409.40,209.40 408.35,211.15 408.00,213.60"/>
    </edge>
    <edge id=":nt6_4" function="internal">
        <lane id=":nt6_4_0" index="0" speed="20.00" length="27.20" shape="413.60,204.80 386.40,204.80"/>
    </edge>
    <edge id=":nt6_5" function="internal">
        <lane id=":nt6_5_0" index="0" speed="10.36" length="24.51" shape="413.60,201.60 406.95,200.65 402.20,197.80 399.35,193.05 398.40,186.40"/>
    </edge>
    <edge id=":nt6_6" function="internal">
        <lane id=":nt6_6_0" index="0" speed="6.51" length="9.03" shape="408.00,186.40 408.35,188.85 409.40,190.60 411.15,191.65 413.60,192.00"/>
    </edge>
    <edge id=":nt6_7" function="internal">
        <lane id=":nt6_7_0" index="0" speed="20.00" length="27.20" shape="404.80,186.40 404.80,213.60"/>
    </edge>
    <edge id=":nt6_8" function="internal">
        <lane id=":nt6_8_0" index="0" speed="10.36" length="24.51" shape="401.60,186.40 400.65,193.05 397.80,197.80 393.05,200.65 386.40,201.60"/>
    </edge>
    <edge id=":nt6_9" function="internal">
        <lane id=":nt6_9_0" index="0" speed="6.51" length="9.03" shape="386.40,192.00 388.85,191.65 390.60,190.60 391.65,188.85 392.00,186.40"/>
    </edge>
    <edge id=":nt6_10" function="internal">
        <lane id=":nt6_10_0" index="0" speed="20.00" length="27.20" shape="386.40,195.20 413.60,195.20"/>
    </edge>
    <edge id=":nt6_11" function="internal">
        <lane id=":nt6_11_0" index="0" speed="10.36" length="24.51" shape="386.40,198.40 393.05,199.35 397.80,202.20 400.65,206.95 401.60,213.60"/>
    </edge>
    <edge id=":nt7_0" function="internal">
        <lane id=":nt7_0_0" index="0" speed="6.51" length="9.03" shape="-8.00,413.60 -8.35,411.15 -9.40,409.40 -11.15,408.35 -13.60,408.00"/>
    </edge>
    <edge id=":nt7_1" function="internal">
        <lane id=":nt7_1_0" index="0" speed="20.00" length="27.20" shape="-4.80,413.60 -4.80,386.40"/>
    </edge>
    <edge id=":nt7_2" function="internal">
        <lane id=":nt7_2_0" index="0" speed="10.36" length="24.51" shape="-1.60,413.60 -0.65,406.95 2.20,402.20 6.95,399.35 13.60,398.40"/>
    </edge>
    <edge id=":nt7_3" function="internal">
        <lane id=":nt7_3_0" index="0" speed="6.51" length="9.03" shape="13.60,408.00 11.15,408.35 9.40,409.40 8.35,411.15 8.00,413.60"/>
    </edge>
    <edge id=":nt7_4" function="internal">
        <lane id=":nt7_4_0" index="0" speed="20.00" length="27.20" shape="13.60,404.80 -13.60,404.80"/>
    </edge>
    <edge id=":nt7_5" function="internal">
        <lane id=":nt7_5_0" index="0" speed="10.36" length="24.51" shape="13.60,401.60 6.95,400.65 2.20,397.80 -0.65,393.05 -1.60,386.40"/>
    </edge>
    <edge id=":nt7_6" function="internal">
        <lane id=":nt7_6_0" index="0" speed="6.51" length="9.03" shape="8.00,386.40 8.35,388.85 9.40,390.60 11.15,391.65 13.60,392.00"/>
    </edge>
    <edge id=":nt7_7" function="internal">
        <lane id=":nt7_7_0" index="0" speed="20.00" length="27.20" shape="4.80,386.40 4.80,413.60"/>
    </edge>
    <edge id=":nt7_8" function="internal">
        <lane id=":nt7_8_0" index="0" speed="10.36" length="24.51" shape="1.60,386.40 0.65,393.05 -2.20,397.80 -6.95,400.65 -13.60,401.60"/>
    </edge>
    <edge id=":nt7_9" function="internal">
        <lane id=":nt7_9_0" index="0" speed="6.51" length="9.03" shape="-13.60,392.00 -11.15,391.65 -9.40,390.60 -8.35,388.85 -8.00,386.40"/>
    </edge>
    <edge id=":nt7_10" function="internal">
        <lane id=":nt7_10_0" index="0" speed="20.00" length="27.20" shape="-13.60,395.20 13.60,395.20"/>
    </edge>
    <edge id=":nt7_11" function="internal">
        <lane id=":nt7_11_0" index="0" speed="10.36" length="24.51" shape="-13.60,398.40 -6.95,399.35 -2.20,402.20 0.65,406.95 1.60,413.60"/>
    </edge>
    <edge id=":nt8_0" function="internal">
        <lane id=":nt8_0_0" index="0" speed="6.51" length="9.03" shape="192.00,413.60 191.65,411.15 190.60,409.40 188.85,408.35 186.40,408.00"/>
    </edge>
    <edge id=":nt8_1" function="internal">
        <lane id=":nt8_1_0" index="0" speed="20.00" length="27.20" shape="195.20,413.60 195.20,386.40"/>
    </edge>
    <edge id=":nt8_2" function="internal">
        <lane id=":nt8_2_0" index="0" speed="10.36" length="24.51" shape="198.40,413.60 199.35,406.95 202.20,402.20 206.95,399.35 213.60,398.40"/>
    </edge>
    <edge id=":nt8_3" function="internal">
        <lane id=":nt8_3_0" index="0" speed="6.51" length="9.03" shape="213.60,408.00 211.15,408.35 209.40,409.40 208.35,411.15 208.00,413.60"/>
    </edge>
    <edge id=":nt8_4" function="internal">
        <lane id=":nt8_4_0" index="0" speed="20.00" length="27.20" shape="213.60,404.80 186.40,404.80"/>
    </edge>
    <edge id=":nt8_5" function="internal">
        <lane id=":nt8_5_0" index="0" speed="10.36" length="24.51" shape="213.60,401.60 206.95,400.65 202.20,397.80 199.35,393.05 198.40,386.40"/>
    </edge>
    <edge id=":nt8_6" function="internal">
        <lane id=":nt8_6_0" index="0" speed="6.51" length="9.03" shape="208.00,386.40 208.35,388.85 209.40,390.60 211.15,391.65 213.60,392.00"/>
    </edge>
    <edge id=":nt8_7" function="internal">
        <lane id=":nt8_7_0" index="0" speed="20.00" length="27.20" shape="204.80,386.40 204.80,413.60"/>
    </edge>
    <edge id=":nt8_8" function="internal">
        <lane id=":nt8_8_0" index="0" speed="10.36" length="24.51" shape="201.60,386.40 200.65,393.05 197.80,397.80 193.05,400.65 186.40,401.60"/>
    </edge>
    <edge id=":nt8_9" function="internal">
        <lane id=":nt8_9_0" index="0" speed="6.51" length="9.03" shape="186.40,392.00 188.85,391.65 190.60,390.60 191.65,388.85 192.00,386.40"/>
    </edge>
    <edge id=":nt8_10" function="internal">
        <lane id=":nt8_10_0" index="0" speed="20.00" length="27.20" shape="186.40,395.20 213.60,395.20"/>
    </edge>
    <edge id=":nt8_11" function="internal">
        <lane id=":nt8_11_0" index="0" speed="10.36" length="24.51" shape="186.40,398.40 193.05,399.35 197.80,402.20 200.65,406.95 201.60,413.60"/>
    </edge>
    <edge id=":nt9_0" function="internal">
        <lane id=":nt9_0_0" index="0" speed="6.51" length="9.03" shape="392.00,413.60 391.65,411.15 390.60,409.40 388.85,408.35 386.40,408.00"/>
    </edge>
    <edge id=":nt9_1" function="internal">
        <lane id=":nt9_1_0" index="0" speed="20.00" length="27.20" shape="395.20,413.60 395.20,386.40"/>
    </edge>
    <edge id=":nt9_2" function="internal">
        <lane id=":nt9_2_0" index="0" speed="10.36" length="24.51" shape="398.40,413.60 399.35,406.95 402.20,402.20 406.95,399.35 413.60,398.40"/>
    </edge>
    <edge id=":nt9_3" function="internal">
        <lane id=":nt9_3_0" index="0" speed="6.51" length="9.03" shape="413.60,408.00 411.15,408.35 409.40,409.40 408.35,411.15 408.00,413.60"/>
    </edge>
    <edge id=":nt9_4" function="internal">
        <lane id=":nt9_4_0" index="0" speed="20.00" length="27.20" shape="413.60,404.80 386.40,404.80"/>
    </edge>
    <edge id=":nt9_5" function="internal">
        <lane id=":nt9_5_0" index="0" speed="10.36" length="24.51" shape="413.60,401.60 406.95,400.65 402.20,397.80 399.35,393.05 398.40,386.40"/>
    </edge>
    <edge id=":nt9_6" function="internal">
        <lane id=":nt9_6_0" index="0" speed="6.51" length="9.03" shape="408.00,386.40 408.35,388.85 409.40,390.60 411.15,391.65 413.60,392.00"/>
    </edge>
    <edge id=":nt9_7" function="internal">
        <lane id=":nt9_7_0" index="0" speed="20.00" length="27.20" shape="404.80,386.40 404.80,413.60"/>
    </edge>
    <edge id=":nt9_8" function="internal">
        <lane id=":nt9_8_0" index="0" speed="10.36" length="24.51" shape="401.60,386.40 400.65,393.05 397.80,397.80 393.05,400.65 386.40,401.60"/>
    </edge>
    <edge id=":nt9_9" function="internal">
        <lane id=":nt9_9_0" index="0" speed="6.51" length="9.03" shape="386.40,392.00 388.85,391.65 390.60,390.60 391.65,388.85 392.00,386.40"/>
    </edge>
    <edge id=":nt9_10" function="internal">
        <lane id=":nt9_10_0" index="0" speed="20.00" length="27.20" shape="386.40,395.20 413.60,395.20"/>
    </edge>
    <edge id=":nt9_11" function="internal">
        <lane id=":nt9_11_0" index="0" speed="10.36" length="24.51" shape="386.40,398.40 393.05,399.35 397.80,402.20 400.65,406.95 401.60,413.60"/>
    </edge>

    <edge id="np10_nt7" from="np10" to="nt7" priority="-1">
        <lane id="np10_nt7_0" index="0" speed="20.00" length="86.40" shape="-100.00,392.00 -13.60,392.00"/>
        <lane id="np10_nt7_1" index="1" speed="20.00" length="86.40" shape="-100.00,395.20 -13.60,395.20"/>
        <lane id="np10_nt7_2" index="2" speed="20.00" length="86.40" shape="-100.00,398.40 -13.60,398.40"/>
    </edge>
    <edge id="np11_nt4" from="np11" to="nt4" priority="-1">
        <lane id="np11_nt4_0" index="0" speed="20.00" length="86.40" shape="-100.00,192.00 -13.60,192.00"/>
        <lane id="np11_nt4_1" index="1" speed="20.00" length="86.40" shape="-100.00,195.20 -13.60,195.20"/>
        <lane id="np11_nt4_2" index="2" speed="20.00" length="86.40" shape="-100.00,198.40 -13.60,198.40"/>
    </edge>
    <edge id="np12_nt1" from="np12" to="nt1" priority="-1">
        <lane id="np12_nt1_0" index="0" speed="20.00" length="86.40" shape="-100.00,-8.00 -13.60,-8.00"/>
        <lane id="np12_nt1_1" index="1" speed="20.00" length="86.40" shape="-100.00,-4.80 -13.60,-4.80"/>
        <lane id="np12_nt1_2" index="2" speed="20.00" length="86.40" shape="-100.00,-1.60 -13.60,-1.60"/>
    </edge>
    <edge id="np1_nt1" from="np1" to="nt1" priority="-1">
        <lane id="np1_nt1_0" index="0" speed="20.00" length="86.40" shape="8.00,-100.00 8.00,-13.60"/>
        <lane id="np1_nt1_1" index="1" speed="20.00" length="86.40" shape="4.80,-100.00 4.80,-13.60"/>
        <lane id="np1_nt1_2" index="2" speed="20.00" length="86.40" shape="1.60,-100.00 1.60,-13.60"/>
    </edge>
    <edge id="np2_nt2" from="np2" to="nt2" priority="-1">
        <lane id="np2_nt2_0" index="0" speed="20.00" length="86.40" shape="208.00,-100.00 208.00,-13.60"/>
        <lane id="np2_nt2_1" index="1" speed="20.00" length="86.40" shape="204.80,-100.00 204.80,-13.60"/>
        <lane id="np2_nt2_2" index="2" speed="20.00" length="86.40" shape="201.60,-100.00 201.60,-13.60"/>
    </edge>
    <edge id="np3_nt3" from="np3" to="nt3" priority="-1">
        <lane id="np3_nt3_0" index="0" speed="20.00" length="86.40" shape="408.00,-100.00 408.00,-13.60"/>
        <lane id="np3_nt3_1" index="1" speed="20.00" length="86.40" shape="404.80,-100.00 404.80,-13.60"/>
        <lane id="np3_nt3_2" index="2" speed="20.00" length="86.40" shape="401.60,-100.00 401.60,-13.60"/>
    </edge>
    <edge id="np4_nt3" from="np4" to="nt3" priority="-1">
        <lane id="np4_nt3_0" index="0" speed="20.00" length="86.40" shape="500.00,8.00 413.60,8.00"/>
        <lane id="np4_nt3_1" index="1" speed="20.00" length="86.40" shape="500.00,4.80 413.60,4.80"/>
        <lane id="np4_nt3_2" index="2" speed="20.00" length="86.40" shape="500.00,1.60 413.60,1.60"/>
    </edge>
    <edge id="np5_nt6" from="np5" to="nt6" priority="-1">
        <lane id="np5_nt6_0" index="0" speed="20.00" length="86.40" shape="500.00,208.00 413.60,208.00"/>
        <lane id="np5_nt6_1" index="1" speed="20.00" length="86.40" shape="500.00,204.80 413.60,204.80"/>
        <lane id="np5_nt6_2" index="2" speed="20.00" length="86.40" shape="500.00,201.60 413.60,201.60"/>
    </edge>
    <edge id="np6_nt9" from="np6" to="nt9" priority="-1">
        <lane id="np6_nt9_0" index="0" speed="20.00" length="86.40" shape="500.00,408.00 413.60,408.00"/>
        <lane id="np6_nt9_1" index="1" speed="20.00" length="86.40" shape="500.00,404.80 413.60,404.80"/>
        <lane id="np6_nt9_2" index="2" speed="20.00" length="86.40" shape="500.00,401.60 413.60,401.60"/>
    </edge>
    <edge id="np7_nt9" from="np7" to="nt9" priority="-1">
        <lane id="np7_nt9_0" index="0" speed="20.00" length="86.40" shape="392.00,500.00 392.00,413.60"/>
        <lane id="np7_nt9_1" index="1" speed="20.00" length="86.40" shape="395.20,500.00 395.20,413.60"/>
        <lane id="np7_nt9_2" index="2" speed="20.00" length="86.40" shape="398.40,500.00 398.40,413.60"/>
    </edge>
    <edge id="np8_nt8" from="np8" to="nt8" priority="-1">
        <lane id="np8_nt8_0" index="0" speed="20.00" length="86.40" shape="192.00,500.00 192.00,413.60"/>
        <lane id="np8_nt8_1" index="1" speed="20.00" length="86.40" shape="195.20,500.00 195.20,413.60"/>
        <lane id="np8_nt8_2" index="2" speed="20.00" length="86.40" shape="198.40,500.00 198.40,413.60"/>
    </edge>
    <edge id="np9_nt7" from="np9" to="nt7" priority="-1">
        <lane id="np9_nt7_0" index="0" speed="20.00" length="86.40" shape="-8.00,500.00 -8.00,413.60"/>
        <lane id="np9_nt7_1" index="1" speed="20.00" length="86.40" shape="-4.80,500.00 -4.80,413.60"/>
        <lane id="np9_nt7_2" index="2" speed="20.00" length="86.40" shape="-1.60,500.00 -1.60,413.60"/>
    </edge>
    <edge id="nt1_np1" from="nt1" to="np1" priority="-1">
        <lane id="nt1_np1_0" index="0" speed="20.00" length="86.40" shape="-8.00,-13.60 -8.00,-100.00"/>
        <lane id="nt1_np1_1" index="1" speed="20.00" length="86.40" shape="-4.80,-13.60 -4.80,-100.00"/>
        <lane id="nt1_np1_2" index="2" speed="20.00" length="86.40" shape="-1.60,-13.60 -1.60,-100.00"/>
    </edge>
    <edge id="nt1_np12" from="nt1" to="np12" priority="-1">
        <lane id="nt1_np12_0" index="0" speed="20.00" length="86.40" shape="-13.60,8.00 -100.00,8.00"/>
        <lane id="nt1_np12_1" index="1" speed="20.00" length="86.40" shape="-13.60,4.80 -100.00,4.80"/>
        <lane id="nt1_np12_2" index="2" speed="20.00" length="86.40" shape="-13.60,1.60 -100.00,1.60"/>
    </edge>
    <edge id="nt1_nt2" from="nt1" to="nt2" priority="-1">
        <lane id="nt1_nt2_0" index="0" speed="20.00" length="172.80" shape="13.60,-8.00 186.40,-8.00"/>
        <lane id="nt1_nt2_1" index="1" speed="20.00" length="172.80" shape="13.60,-4.80 186.40,-4.80"/>
        <lane id="nt1_nt2_2" index="2" speed="20.00" length="172.80" shape="13.60,-1.60 186.40,-1.60"/>
    </edge>
    <edge id="nt1_nt4" from="nt1" to="nt4" priority="-1">
        <lane id="nt1_nt4_0" index="0" speed="20.00" length="172.80" shape="8.00,13.60 8.00,186.40"/>
        <lane id="nt1_nt4_1" index="1" speed="20.00" length="172.80" shape="4.80,13.60 4.80,186.40"/>
        <lane id="nt1_nt4_2" index="2" speed="20.00" length="172.80" shape="1.60,13.60 1.60,186.40"/>
    </edge>
    <edge id="nt2_np2" from="nt2" to="np2" priority="-1">
        <lane id="nt2_np2_0" index="0" speed="20.00" length="86.40" shape="192.00,-13.60 192.00,-100.00"/>
        <lane id="nt2_np2_1" index="1" speed="20.00" length="86.40" shape="195.20,-13.60 195.20,-100.00"/>
        <lane id="nt2_np2_2" index="2" speed="20.00" length="86.40" shape="198.40,-13.60 198.40,-100.00"/>
    </edge>
    <edge id="nt2_nt1" from="nt2" to="nt1" priority="-1">
        <lane id="nt2_nt1_0" index="0" speed="20.00" length="172.80" shape="186.40,8.00 13.60,8.00"/>
        <lane id="nt2_nt1_1" index="1" speed="20.00" length="172.80" shape="186.40,4.80 13.60,4.80"/>
        <lane id="nt2_nt1_2" index="2" speed="20.00" length="172.80" shape="186.40,1.60 13.60,1.60"/>
    </edge>
    <edge id="nt2_nt3" from="nt2" to="nt3" priority="-1">
        <lane id="nt2_nt3_0" index="0" speed="20.00" length="172.80" shape="213.60,-8.00 386.40,-8.00"/>
        <lane id="nt2_nt3_1" index="1" speed="20.00" length="172.80" shape="213.60,-4.80 386.40,-4.80"/>
        <lane id="nt2_nt3_2" index="2" speed="20.00" length="172.80" shape="213.60,-1.60 386.40,-1.60"/>
    </edge>
    <edge id="nt2_nt5" from="nt2" to="nt5" priority="-1">
        <lane id="nt2_nt5_0" index="0" speed="20.00" length="172.80" shape="208.00,13.60 208.00,186.40"/>
        <lane id="nt2_nt5_1" index="1" speed="20.00" length="172.80" shape="204.80,13.60 204.80,186.40"/>
        <lane id="nt2_nt5_2" index="2" speed="20.00" length="172.80" shape="201.60,13.60 201.60,186.40"/>
    </edge>
    <edge id="nt3_np3" from="nt3" to="np3" priority="-1">
        <lane id="nt3_np3_0" index="0" speed="20.00" length="86.40" shape="392.00,-13.60 392.00,-100.00"/>
        <lane id="nt3_np3_1" index="1" speed="20.00" length="86.40" shape="395.20,-13.60 395.20,-100.00"/>
        <lane id="nt3_np3_2" index="2" speed="20.00" length="86.40" shape="398.40,-13.60 398.40,-100.00"/>
    </edge>
    <edge id="nt3_np4" from="nt3" to="np4" priority="-1">
        <lane id="nt3_np4_0" index="0" speed="20.00" length="86.40" shape="413.60,-8.00 500.00,-8.00"/>
        <lane id="nt3_np4_1" index="1" speed="20.00" length="86.40" shape="413.60,-4.80 500.00,-4.80"/>
        <lane id="nt3_np4_2" index="2" speed="20.00" length="86.40" shape="413.60,-1.60 500.00,-1.60"/>
    </edge>
    <edge id="nt3_nt2" from="nt3" to="nt2" priority="-1">